Generated by mcu on 2020/05/02 - 16:28:36
CRYSTAL
PRIMVEC
      3.1770280100    0.0000000000    0.0000000000
      0.0000000000    5.7281689400   -0.0157118500
      0.0000000000    0.3756910300   30.2151820000
CONVVEC
      3.1770280100    0.0000000000    0.0000000000
      0.0000000000    5.7281689400   -0.0157118500
      0.0000000000    0.3756910300   30.2151820000
PRIMCOORD
  6   1
 Mo     1.5885140050     2.6199122032    17.7388446633
 Mo     0.0000000000     0.3561273827    17.9032035616
 S     1.5885140050     1.0215525944    19.5587478887
 S     0.0000000000     3.9070875021    19.1394992222
 S     0.0000000000     1.9544978986    16.0833344505
 S     1.5885140050     4.7971112456    16.4868477551
